  17
structure    1 of relaxed scan
 C           -3.00145400   -0.72775900    0.20243100
 C           -3.18117300    0.58699400   -0.17811800
 C           -1.89421500    1.17316400   -0.30700800
 C           -0.95132200    0.20171900    0.00215200
 N           -1.65050600   -0.95333800    0.30109600
 H           -1.22463300   -1.80216700    0.64176900
 H           -3.71425300   -1.51237800    0.40846900
 H           -4.13210500    1.06951300   -0.35645600
 H           -1.66571500    2.18118400   -0.62353900
 C            0.49279600    0.26544000    0.03381600
 C            1.29635100    1.36445800    0.23286100
 S            1.47728800   -1.16702100   -0.22967300
 C            2.68958800    1.06428200    0.18776800
 H            0.89371000    2.35086000    0.43234600
 C            2.94744100   -0.25941300   -0.03528700
 H            3.46826600    1.80512400    0.33233600
 H            3.90358300   -0.75973900   -0.09953100
  17
structure    2 of relaxed scan
 C           -3.00419500   -0.70928800    0.24529700
 C           -3.17902500    0.57891600   -0.21938300
 C           -1.88942600    1.15088700   -0.38577100
 C           -0.95101200    0.19684300   -0.01784800
 N           -1.65432900   -0.93313700    0.35833300
 H           -1.22837300   -1.75996600    0.74926400
 H           -3.72003000   -1.47715000    0.49884500
 H           -4.12822100    1.05229700   -0.42890800
 H           -1.65542300    2.13584400   -0.76477600
 C            0.49400200    0.26038900    0.02996200
 C            1.29293000    1.34397600    0.31129800
 S            1.48330500   -1.13819100   -0.36672200
 C            2.68746300    1.05721800    0.22982500
 H            0.88418500    2.30731100    0.59393000
 C            2.94948000   -0.24197600   -0.10565400
 H            3.46408500    1.78677900    0.43172400
 H            3.90823000   -0.72982800   -0.21398400
  17
structure    3 of relaxed scan
 C           -3.00890400   -0.68574900    0.28774800
 C           -3.17600000    0.57086700   -0.25911000
 C           -1.88245300    1.12269000   -0.46260600
 C           -0.95054500    0.18772000   -0.03689300
 N           -1.66076200   -0.90944300    0.41625700
 H           -1.23699800   -1.71667300    0.84817400
 H           -3.72965400   -1.43158100    0.58889800
 H           -4.12248900    1.03565800   -0.49816300
 H           -1.64116200    2.08145400   -0.89973900
 C            0.49615500    0.25109200    0.02606600
 C            1.28853500    1.31502700    0.38629000
 S            1.49325700   -1.09981100   -0.49820400
 C            2.68502900    1.04810700    0.27171000
 H            0.87289600    2.24930700    0.74601500
 C            2.95333900   -0.21640600   -0.17408300
 H            3.45772700    1.76414700    0.52930500
 H            3.91567600   -0.68548300   -0.32623200
  17
structure    4 of relaxed scan
 C           -3.01460800   -0.65700100    0.33055700
 C           -3.17290400    0.56091400   -0.30006800
 C           -1.87500700    1.08843900   -0.53960800
 C           -0.95022600    0.17705700   -0.05391200
 N           -1.66849800   -0.88006900    0.47589500
 H           -1.24838600   -1.66632100    0.94798800
 H           -3.74086200   -1.37594200    0.68018300
 H           -4.11622400    1.01583700   -0.56889600
 H           -1.62592200    2.01662500   -1.03455100
 C            0.49905200    0.24002800    0.01898100
 C            1.28451600    1.27695800    0.46132700
 S            1.50482800   -1.04927300   -0.63033800
 C            2.68286500    1.03512300    0.31515900
 H            0.86168200    2.17487400    0.89731000
 C            2.95807300   -0.18303900   -0.24225700
 H            3.45112700    1.73356100    0.62830200
 H            3.92414000   -0.62684800   -0.44063900
  17
structure    5 of relaxed scan
 C           -3.01885100   -0.62392100    0.37413900
 C           -3.17211400    0.54476900   -0.34457000
 C           -1.87155300    1.04831700   -0.62059900
 C           -0.95099100    0.17185400   -0.06923700
 N           -1.67398300   -0.83967100    0.53786400
 H           -1.25582700   -1.59808600    1.05489400
 H           -3.74814100   -1.31188300    0.77603800
 H           -4.11351500    0.98333100   -0.64546300
 H           -1.61812200    1.94011300   -1.17651800
 C            0.50186400    0.23504100    0.00464300
 C            1.28352500    1.22987600    0.53900600
 S            1.51247700   -0.97923300   -0.76992500
 C            2.68288000    1.01332800    0.36393900
 H            0.85662700    2.08237300    1.05503800
 C            2.96131900   -0.14320300   -0.31128800
 H            3.44857300    1.68474600    0.73673200
 H            3.92947800   -0.55682800   -0.55926000
  17
structure    6 of relaxed scan
 C           -3.01838100   -0.58676600    0.41914800
 C           -3.17616000    0.51643200   -0.39556100
 C           -1.87720800    1.00235100   -0.70955700
 C           -0.95383000    0.18235600   -0.08286800
 N           -1.67290300   -0.77981200    0.60376900
 H           -1.25110800   -1.49765800    1.17299100
 H           -3.74481700   -1.24315200    0.87540700
 H           -4.11914100    0.92511700   -0.73160400
 H           -1.62760000    1.84971700   -1.33269300
 C            0.50311800    0.24786900   -0.01912800
 C            1.28838800    1.17382900    0.62194200
 S            1.50923300   -0.87864900   -0.92005400
 C            2.68705300    0.97578400    0.42082700
 H            0.86459700    1.96847400    1.22563500
 C            2.96017800   -0.09868500   -0.38096200
 H            3.45518200    1.60227500    0.86073300
 H            3.92704700   -0.47855900   -0.68259000
  17
structure    7 of relaxed scan
 C           -3.01081100   -0.54650000    0.46332600
 C           -3.18468000    0.47035000   -0.45385100
 C           -1.89321700    0.95091900   -0.80570400
 C           -0.95880000    0.21843400   -0.09382900
 N           -1.66327000   -0.69220300    0.67357900
 H           -1.22929200   -1.35277300    1.30001500
 H           -3.72770900   -1.16902800    0.97840400
 H           -4.13338700    0.82729700   -0.83028900
 H           -1.65691700    1.74246900   -1.50306100
 C            0.50095900    0.28913600   -0.05072600
 C            1.29893300    1.10692200    0.71021500
 S            1.49170800   -0.73644600   -1.07860900
 C            2.69504300    0.91559600    0.48548500
 H            0.88647600    1.82608100    1.40913000
 C            2.95255500   -0.04925900   -0.45007000
 H            3.47161500    1.47230500    0.99833500
 H            3.91443900   -0.39237800   -0.80692000
  17
structure    8 of relaxed scan
 C           -2.99910700   -0.50206100    0.50455200
 C           -3.19068300    0.41353800   -0.51051100
 C           -1.90920600    0.89382700   -0.89721300
 C           -0.96340400    0.26826100   -0.10286300
 N           -1.65045900   -0.58675600    0.74024700
 H           -1.20370900   -1.17992700    1.42261500
 H           -3.70374500   -1.09045700    1.07382400
 H           -4.14462000    0.70733800   -0.92622600
 H           -1.68773700    1.62110600   -1.66583900
 C            0.49617900    0.34747800   -0.07957800
 C            1.30806200    1.03004800    0.79252000
 S            1.46793700   -0.56450500   -1.22372000
 C            2.70066000    0.84076200    0.54525300
 H            0.90916800    1.65918000    1.58071200
 C            2.94099400    0.00717400   -0.51307100
 H            3.48692900    1.31088800    1.12554100
 H            3.89639000   -0.29496900   -0.92081200
  17
structure    9 of relaxed scan
 C           -2.99172800   -0.45316700    0.54146400
 C           -3.18945500    0.36482800   -0.55310700
 C           -1.91355100    0.83357400   -0.96966100
 C           -0.96470900    0.30241600   -0.11162800
 N           -1.64458300   -0.48946700    0.79654600
 H           -1.19148800   -1.02445300    1.52149200
 H           -3.69183900   -1.00171500    1.15441900
 H           -4.14468700    0.60336800   -0.99997800
 H           -1.69856300    1.49719400   -1.79566100
 C            0.49177000    0.38868400   -0.09672900
 C            1.31033800    0.94782400    0.85503300
 S            1.45357500   -0.40050500   -1.33518100
 C            2.70059800    0.77292000    0.58663900
 H            0.91872200    1.48683800    1.71096300
 C            2.93278700    0.07102900   -0.56503300
 H            3.49143700    1.16408100    1.21717000
 H            3.88502300   -0.18252400   -1.01131800
  17
structure   10 of relaxed scan
 C           -2.99198400   -0.40052100    0.57382200
 C           -3.18485500    0.32911400   -0.58242800
 C           -1.90835200    0.77054000   -1.02518500
 C           -0.96336300    0.31187000   -0.12106800
 N           -1.64648200   -0.40904300    0.84162900
 H           -1.19444900   -0.90000800    1.59771000
 H           -3.69396500   -0.90459400    1.22174900
 H           -4.13785600    0.52932400   -1.05224400
 H           -1.69096200    1.37444400   -1.89523600
 C            0.48942600    0.40376100   -0.10340800
 C            1.30919800    0.86450800    0.90018900
 S            1.44807500   -0.25770900   -1.41497900
 C            2.69877700    0.72013900    0.61172300
 H            0.92001300    1.31932400    1.80483000
 C            2.92947900    0.14114300   -0.60644200
 H            3.49061300    1.04885100    1.27584000
 H            3.88033100   -0.06022100   -1.08107000
  17
structure   11 of relaxed scan
 C           -2.99674100   -0.34489500    0.60226100
 C           -3.17951400    0.30226300   -0.60367900
 C           -1.89870500    0.70497600   -1.06937000
 C           -0.96038300    0.30428000   -0.13029900
 N           -1.65250300   -0.33993600    0.87871300
 H           -1.20636400   -0.79402100    1.66085800
 H           -3.70454100   -0.80013800    1.27927100
 H           -4.12904000    0.47485600   -1.09113800
 H           -1.67474600    1.25088500   -1.97535100
 C            0.48869300    0.40044900   -0.10568200
 C            1.30778500    0.77995700    0.93314900
 S            1.44698800   -0.12852000   -1.47477500
 C            2.69713100    0.67770300    0.62694800
 H            0.91947800    1.15382900    1.87460100
 C            2.92879700    0.21529200   -0.63966000
 H            3.48842600    0.95465100    1.31490900
 H            3.87888400    0.06929200   -1.13532600
  17
structure   12 of relaxed scan
 C           -3.00381100   -0.28700600    0.62704800
 C           -3.17428600    0.28084600   -0.61984300
 C           -1.88750300    0.63718400   -1.10554700
 C           -0.95676500    0.28581000   -0.13858800
 N           -1.66044500   -0.27746800    0.90981900
 H           -1.22329500   -0.69819800    1.71529200
 H           -3.71920600   -0.68978500    1.32881200
 H           -4.11988900    0.43235200   -1.12163500
 H           -1.65530600    1.12522600   -2.04202500
 C            0.48898400    0.38516500   -0.10655000
 C            1.30774100    0.69404300    0.95676500
 S            1.44689900   -0.00685500   -1.52003800
 C            2.69643600    0.64197900    0.63611300
 H            0.92083600    0.98813100    1.92670600
 C            2.92872600    0.29252600   -0.66571300
 H            3.48695400    0.87365100    1.34151000
 H            3.87757700    0.20332000   -1.17669200
  17
structure   13 of relaxed scan
 C           -3.01151900   -0.22765300    0.64771100
 C           -3.16955400    0.26053500   -0.63392900
 C           -1.87649200    0.56764800   -1.13534000
 C           -0.95325100    0.26392700   -0.14447400
 N           -1.66913000   -0.21618200    0.93663700
 H           -1.24315300   -0.60054800    1.76579500
 H           -3.73460500   -0.57704300    1.36986600
 H           -4.11089800    0.39212200   -1.14907800
 H           -1.63579200    0.99552900   -2.09875400
 C            0.48979700    0.36601500   -0.10646700
 C            1.31058400    0.60685300    0.97358900
 S            1.44412700    0.11560600   -1.55405400
 C            2.69733200    0.60826500    0.64148600
 H            0.92809300    0.81876200    1.96654500
 C            2.92698700    0.37200400   -0.68563600
 H            3.48805300    0.79578600    1.35964600
 H            3.87306600    0.33929700   -1.20811100
  17
structure   14 of relaxed scan
 C           -3.01938100   -0.16816200    0.66382000
 C           -3.16542700    0.23721900   -0.64760200
 C           -1.86662300    0.49665900   -1.15997200
 C           -0.95075700    0.24491000   -0.14705800
 N           -1.67832000   -0.15190300    0.95977400
 H           -1.26488300   -0.48896800    1.81524200
 H           -3.74955800   -0.46290900    1.40297800
 H           -4.10222700    0.34540100   -1.17621500
 H           -1.61779900    0.85938700   -2.14780700
 C            0.49057000    0.34993000   -0.10564500
 C            1.31676300    0.51783800    0.98456700
 S            1.43661800    0.24716200   -1.57680300
 C            2.70025800    0.57291200    0.64379800
 H            0.94338400    0.63950200    1.99604700
 C            2.92297800    0.45358900   -0.69962500
 H            3.49340300    0.71165300    1.37026500
 H            3.86464700    0.47670300   -1.23033300
  17
structure   15 of relaxed scan
 C           -3.02710300   -0.10951000    0.67548600
 C           -3.16176900    0.20641500   -0.66150500
 C           -1.85838100    0.42454700   -1.17983800
 C           -0.94983700    0.23657500   -0.14578100
 N           -1.68821500   -0.08016500    0.97951800
 H           -1.28778300   -0.34444200    1.86587000
 H           -3.76390400   -0.34916900    1.42784000
 H           -4.09393000    0.28037500   -1.20393900
 H           -1.60214300    0.71270300   -2.19015200
 C            0.49055200    0.34511200   -0.10411000
 C            1.32641600    0.42524800    0.98918300
 S            1.42360400    0.39849400   -1.58669200
 C            2.70546800    0.53082300    0.64303300
 H            0.96754800    0.44027200    2.01311000
 C            2.91667500    0.53780100   -0.70713200
 H            3.50374400    0.60934500    1.37284400
 H            3.85270700    0.61649800   -1.24230400
  17
structure   16 of relaxed scan
 C           -3.03410400   -0.05269900    0.68376400
 C           -3.15830200    0.16244800   -0.67414600
 C           -1.85183100    0.35145400   -1.19490300
 C           -0.95098600    0.24766700   -0.14183500
 N           -1.69824600    0.00389600    0.99573300
 H           -1.31079400   -0.14350200    1.91408800
 H           -3.77631000   -0.23897300    1.44584500
 H           -4.08506300    0.18411600   -1.23018400
 H           -1.58815300    0.55032800   -2.22468400
 C            0.48898300    0.36103500   -0.10050200
 C            1.33757700    0.32739100    0.98555000
 S            1.40603300    0.58131300   -1.57831900
 C            2.71224200    0.47672000    0.63831100
 H            0.99615800    0.20966400    2.00887200
 C            2.90906300    0.62571400   -0.70553400
 H            3.51829300    0.47573800    1.36375500
 H            3.83908900    0.75861500   -1.24037800
  17
structure   17 of relaxed scan
 C           -3.03830900    0.00287700    0.69142600
 C           -3.15374000    0.11046900   -0.68002200
 C           -1.84561000    0.27738600   -1.20413800
 C           -0.95272700    0.26926200   -0.13927600
 N           -1.70526400    0.09426800    1.00739200
 H           -1.32961000    0.09346400    1.94241100
 H           -3.78486200   -0.13022100    1.46036400
 H           -4.07547000    0.06862700   -1.24325900
 H           -1.57328500    0.37883300   -2.24579700
 C            0.48676000    0.38766900   -0.09694400
 C            1.34535400    0.22716100    0.96974000
 S            1.38997300    0.77910400   -1.54752600
 C            2.71682000    0.41618300    0.62934500
 H            1.01451200   -0.03645500    1.96905400
 C            2.90162000    0.71473800   -0.69116900
 H            3.53003900    0.32639600    1.34110800
 H            3.82744500    0.90116000   -1.21727700
  17
structure   18 of relaxed scan
 C           -3.04049600    0.06097600    0.69831800
 C           -3.15037600    0.06857600   -0.67765800
 C           -1.84021500    0.20234400   -1.20796600
 C           -0.95297700    0.27409700   -0.14160700
 N           -1.70851600    0.17639200    1.01230900
 H           -1.33731100    0.28292100    1.94335900
 H           -3.79032600   -0.01676300    1.47167000
 H           -4.06920600   -0.02143900   -1.24007000
 H           -1.56134300    0.21694600   -2.25266800
 C            0.48634100    0.39677200   -0.09762600
 C            1.34988600    0.13436600    0.94426200
 S            1.37825600    0.94518100   -1.50281900
 C            2.71846500    0.36718100    0.61915500
 H            1.02227600   -0.24794300    1.90546300
 C            2.89484400    0.79770000   -0.66592500
 H            3.53649800    0.20700000    1.31285300
 H            3.81784600    1.03661700   -1.17562100
  17
structure   19 of relaxed scan
 C           -3.04298400    0.12203800    0.70158300
 C           -3.14913500    0.03786600   -0.67220500
 C           -1.83643600    0.12665900   -1.20688900
 C           -0.95235500    0.26147200   -0.14484300
 N           -1.71096600    0.24902200    1.01104200
 H           -1.33807800    0.42428300    1.93121500
 H           -3.79568600    0.10149000    1.47579500
 H           -4.06733200   -0.08500300   -1.22950700
 H           -1.55255400    0.06643400   -2.24853800
 C            0.48752300    0.38784300   -0.10109500
 C            1.35631700    0.04854700    0.91335300
 S            1.36596700    1.07880900   -1.45032200
 C            2.72058100    0.32962800    0.60827100
 H            1.03230200   -0.42655700    1.83343300
 C            2.88687000    0.87486900   -0.63432600
 H            3.54353400    0.11761200    1.28200100
 H            3.80607900    1.16591200   -1.12353600
  17
structure   20 of relaxed scan
 C           -3.04543100    0.18458700    0.70070600
 C           -3.14953100    0.01256500   -0.66517400
 C           -1.83441100    0.05074500   -1.20091400
 C           -0.95173900    0.24027400   -0.14691400
 N           -1.71297200    0.31665300    1.00477000
 H           -1.33573200    0.54197100    1.91233300
 H           -3.80023500    0.22239200    1.47225700
 H           -4.06815000   -0.13521000   -1.21577900
 H           -1.54769300   -0.07798400   -2.23550000
 C            0.48962800    0.37051800   -0.10626800
 C            1.36555100   -0.03283000    0.87738400
 S            1.35135800    1.19365700   -1.39054500
 C            2.72398800    0.29763100    0.59601800
 H            1.04805900   -0.58652900    1.75475100
 C            2.87715900    0.94791900   -0.59718900
 H            3.55271800    0.04380100    1.24788500
 H            3.79108100    1.29076200   -1.06238900
  17
structure   21 of relaxed scan
 C           -3.04802600    0.24770700    0.69546800
 C           -3.15067500   -0.01146000   -0.65682000
 C           -1.83339000   -0.02516400   -1.18926700
 C           -0.95158000    0.21749200   -0.14635200
 N           -1.71524400    0.38359000    0.99433600
 H           -1.33383300    0.65080400    1.88879200
 H           -3.80440300    0.34347400    1.46048100
 H           -4.06971000   -0.18238700   -1.20004000
 H           -1.54494600   -0.21928300   -2.21306600
 C            0.49194600    0.35259100   -0.11112400
 C            1.37745600   -0.11040900    0.83603600
 S            1.33407300    1.29930100   -1.32181500
 C            2.72895200    0.26711000    0.58095900
 H            1.06941500   -0.73508500    1.66784400
 C            2.86576500    1.01712900   -0.55478300
 H            3.56475700   -0.02473200    1.20739400
 H            3.77309200    1.41024300   -0.99261100
  17
structure   22 of relaxed scan
 C           -3.05120300    0.31052600    0.68589300
 C           -3.15188500   -0.03843300   -0.64627100
 C           -1.83260500   -0.10118500   -1.17092500
 C           -0.95223900    0.19933700   -0.14295600
 N           -1.71861600    0.45459700    0.97966900
 H           -1.33486600    0.76127000    1.86041900
 H           -3.80933700    0.46304600    1.43994100
 H           -4.07114700   -0.23519600   -1.18035500
 H           -1.54192300   -0.36018400   -2.17958900
 C            0.49404100    0.34052700   -0.11399500
 C            1.39107500   -0.18418100    0.78779300
 S            1.31570600    1.40236900   -1.24166300
 C            2.73561600    0.23474300    0.56117600
 H            1.09387900   -0.87659100    1.56822700
 C            2.85433700    1.08173200   -0.50670800
 H            3.57904200   -0.09594900    1.15735500
 H            3.75377100    1.52449400   -0.91258000
  17
structure   23 of relaxed scan
 C           -3.05750100    0.37151200    0.67167000
 C           -3.15181300   -0.07285100   -0.63221300
 C           -1.82939600   -0.17662900   -1.14310200
 C           -0.95405000    0.19370400   -0.13470700
 N           -1.72652600    0.53458000    0.96103800
 H           -1.34518600    0.88586900    1.82605700
 H           -3.81923200    0.57809400    1.40908700
 H           -4.06839700   -0.30450200   -1.15688700
 H           -1.53412600   -0.50233800   -2.13084300
 C            0.49504500    0.34126800   -0.11022200
 C            1.40559200   -0.25420200    0.73070000
 S            1.29753800    1.51089700   -1.14287600
 C            2.74432700    0.19669500    0.53244000
 H            1.11973800   -1.01318200    1.45098700
 C            2.84435200    1.14158300   -0.45241000
 H            3.59659900   -0.17841200    1.08836800
 H            3.73668300    1.62883700   -0.82165500
  17
structure   24 of relaxed scan
 C           -3.06889400    0.42957000    0.65220600
 C           -3.14828800   -0.12006100   -0.61178200
 C           -1.82023700   -0.25236000   -1.10202100
 C           -0.95724000    0.20750800   -0.12123400
 N           -1.74217600    0.62942700    0.93707200
 H           -1.37081600    1.03575800    1.78210100
 H           -3.83872500    0.68721300    1.36477800
 H           -4.05864200   -0.39974100   -1.12378100
 H           -1.51319500   -0.64879500   -2.05983900
 C            0.49446100    0.36155900   -0.09480200
 C            1.41817800   -0.31956300    0.66059400
 S            1.28353100    1.63005700   -1.01728000
 C            2.75465200    0.14965500    0.48927400
 H            1.14119500   -1.14624800    1.30573600
 C            2.83933600    1.19437100   -0.39059400
 H            3.61488000   -0.27998700    0.99074900
 H            3.72562800    1.72256200   -0.71574100
  17
structure   25 of relaxed scan
 C           -3.08716100    0.48424300    0.62638700
 C           -3.13750300   -0.18186700   -0.58161300
 C           -1.80002200   -0.32849300   -1.04219400
 C           -0.96127800    0.24467600   -0.10163800
 N           -1.76910500    0.74115700    0.90595100
 H           -1.41816500    1.21785000    1.72247000
 H           -3.87180100    0.78978700    1.30298700
 H           -4.03450600   -0.52657400   -1.07730100
 H           -1.47127900   -0.80150000   -1.95704700
 C            0.49168000    0.40306400   -0.06075200
 C            1.42544100   -0.37902400    0.57322300
 S            1.27699500    1.76037100   -0.85320600
 C            2.76365300    0.09343800    0.42558500
 H            1.15169600   -1.27369900    1.12153900
 C            2.84034500    1.23890300   -0.31938900
 H            3.62988500   -0.40112100    0.85109700
 H            3.72477200    1.79971200   -0.59066600
  17
structure   26 of relaxed scan
 C           -3.10625700    0.53591800    0.59463600
 C           -3.11972100   -0.24804600   -0.54143800
 C           -1.77165500   -0.40356000   -0.96666300
 C           -0.96405200    0.28927500   -0.08090800
 N           -1.80001900    0.85550300    0.86491900
 H           -1.47448100    1.40803500    1.64327200
 H           -3.90982700    0.88683300    1.22540300
 H           -3.99981900   -0.66141100   -1.01448000
 H           -1.41567700   -0.95369000   -1.82647900
 C            0.48762800    0.44798400   -0.01543800
 C            1.42484600   -0.42878800    0.47169400
 S            1.27694600    1.88029600   -0.66034500
 C            2.76696000    0.03999400    0.34786700
 H            1.14989400   -1.38290500    0.90722400
 C            2.84437200    1.27369600   -0.23869300
 H            3.63483800   -0.51718300    0.68312400
 H            3.72967100    1.85897100   -0.44826500
  17
structure   27 of relaxed scan
 C           -3.11940100    0.58481700    0.55975600
 C           -3.10362200   -0.30027800   -0.49949700
 C           -1.74704000   -0.47379200   -0.88852600
 C           -0.96382100    0.31393000   -0.06122700
 N           -1.82237800    0.94846500    0.81887500
 H           -1.51733700    1.56496800    1.55651900
 H           -3.93794100    0.98188900    1.14203900
 H           -3.97056500   -0.76563000   -0.94782400
 H           -1.36921700   -1.09115400   -1.69146800
 C            0.48380200    0.47114200    0.02372400
 C            1.42370700   -0.46737100    0.37168800
 S            1.27315600    1.96294500   -0.47223100
 C            2.76687800    0.00419600    0.27384500
 H            1.14815800   -1.46409200    0.69734800
 C            2.84382600    1.30018500   -0.15745900
 H            3.63646900   -0.59396900    0.52292500
 H            3.72897400    1.90467300   -0.30305400
  17
structure   28 of relaxed scan
 C           -3.12467600    0.63147800    0.52545400
 C           -3.09666500   -0.33493000   -0.46008700
 C           -1.73616800   -0.53799400   -0.81856200
 C           -0.96216900    0.31468700   -0.04770100
 N           -1.83064400    1.01632500    0.76952500
 H           -1.53357300    1.67895100    1.46959000
 H           -3.95003400    1.07315900    1.06426000
 H           -3.95854400   -0.83312500   -0.88207300
 H           -1.34998800   -1.21205300   -1.57027700
 C            0.48150900    0.47052600    0.04409900
 C            1.42778600   -0.49678100    0.28012600
 S            1.26123600    2.00801600   -0.30767100
 C            2.76813500   -0.01218700    0.21545800
 H            1.15863100   -1.52143800    0.51007300
 C            2.83800600    1.32211100   -0.07719400
 H            3.64181500   -0.62944200    0.39367000
 H            3.71899000    1.94362000   -0.16325900
  17
structure   29 of relaxed scan
 C           -3.12612700    0.67441000    0.49117400
 C           -3.09509600   -0.35939500   -0.42333600
 C           -1.73293500   -0.59621300   -0.75258300
 C           -0.96015000    0.30310300   -0.03399000
 N           -1.83166300    1.06814000    0.72044800
 H           -1.53727100    1.76740700    1.38524100
 H           -3.95352700    1.15836000    0.98890600
 H           -3.95637800   -0.87916400   -0.81968000
 H           -1.34511700   -1.31948900   -1.45614200
 C            0.48013200    0.45948200    0.05408800
 C            1.43548000   -0.51810400    0.19545600
 S            1.24462600    2.02969700   -0.15864600
 C            2.77101600   -0.01755400    0.16613200
 H            1.17657400   -1.56094000    0.33877800
 C            2.82942900    1.33853800   -0.00046000
 H            3.65063900   -0.64120300    0.28200100
 H            3.70401500    1.97384800   -0.03195600
  17
structure   30 of relaxed scan
 C           -3.12577200    0.71297500    0.45680400
 C           -3.09624700   -0.37887000   -0.38758400
 C           -1.73399400   -0.64881200   -0.68797600
 C           -0.95848600    0.28762300   -0.01994900
 N           -1.82949000    1.11077400    0.67078800
 H           -1.53554600    1.84058400    1.30227700
 H           -3.95261500    1.23521900    0.91504800
 H           -3.95885200   -0.91497900   -0.75840400
 H           -1.34833600   -1.41667900   -1.34385000
 C            0.47937300    0.44634300    0.05690500
 C            1.44437100   -0.53124500    0.11429700
 S            1.22783000    2.03617400   -0.01966100
 C            2.77454600   -0.01660300    0.12273700
 H            1.19714000   -1.58487700    0.17542100
 C            2.82084600    1.34903500    0.07413400
 H            3.66027800   -0.63962000    0.18179100
 H            3.68860100    1.99388000    0.09265300
  17
structure   31 of relaxed scan
 C           -3.12610900    0.74593200    0.42143300
 C           -3.09683200   -0.39751500   -0.35167300
 C           -1.73446700   -0.69518800   -0.62124000
 C           -0.95718700    0.27505500   -0.00357300
 N           -1.82875800    1.14872500    0.62097200
 H           -1.53744700    1.90893100    1.21694200
 H           -3.95282700    1.30104800    0.83936900
 H           -3.95973400   -0.95020000   -0.69646700
 H           -1.35032700   -1.50399800   -1.22688500
 C            0.47893000    0.43758800    0.05795800
 C            1.45117800   -0.53527800    0.03461100
 S            1.21613900    2.03279300    0.11696700
 C            2.77728000   -0.01327700    0.08104000
 H            1.21324000   -1.59257300    0.01308100
 C            2.81526600    1.35171300    0.14692900
 H            3.66736500   -0.63288500    0.08354700
 H            3.67793600    2.00005200    0.21242100
  17
structure   32 of relaxed scan
 C           -3.12808600    0.77327900    0.38417200
 C           -3.09600900   -0.41705300   -0.31433600
 C           -1.73283000   -0.73606500   -0.55043200
 C           -0.95639900    0.26787400    0.01420400
 N           -1.83085000    1.18398600    0.56963300
 H           -1.54584300    1.97814400    1.12285600
 H           -3.95609300    1.35610800    0.75953400
 H           -3.95752700   -0.98836300   -0.63101600
 H           -1.34829300   -1.58360900   -1.10028300
 C            0.47878200    0.43440600    0.06127100
 C            1.45504400   -0.52998300   -0.04557400
 S            1.21124800    2.01994500    0.25857000
 C            2.77906400   -0.00873500    0.03907800
 H            1.22286800   -1.58308100   -0.15499900
 C            2.81381900    1.34566400    0.22022100
 H            3.67103500   -0.62302700   -0.01761600
 H            3.67371800    1.99143200    0.33014900
  17
structure   33 of relaxed scan
 C           -3.13151700    0.79584400    0.34401000
 C           -3.09359900   -0.43836000   -0.27367100
 C           -1.72906000   -0.77300100   -0.47280700
 C           -0.95597900    0.26565900    0.03278400
 N           -1.83587000    1.21642300    0.51649700
 H           -1.56004600    2.05404700    1.00644400
 H           -3.96231500    1.40307400    0.67136700
 H           -3.95226500   -1.03025900   -0.55854400
 H           -1.34190200   -1.65959600   -0.95505600
 C            0.47875700    0.43439600    0.07202500
 C            1.45592200   -0.51499700   -0.12898300
 S            1.21258900    1.99366800    0.41538400
 C            2.77974000   -0.00222200   -0.00602700
 H            1.22636400   -1.55326700   -0.33905400
 C            2.81601500    1.33001800    0.29700600
 H            3.67138700   -0.60717800   -0.12902300
 H            3.67542600    1.96667500    0.45308000
  17
structure   34 of relaxed scan
 C           -3.13504200    0.81487300    0.29985400
 C           -3.09093000   -0.46094400   -0.22618400
 C           -1.72492800   -0.80831400   -0.38594800
 C           -0.95595500    0.26579900    0.04844900
 N           -1.84116600    1.24551000    0.45867400
 H           -1.57327000    2.13654900    0.84818100
 H           -3.96884000    1.44497700    0.57151400
 H           -3.94641200   -1.07486900   -0.47114400
 H           -1.33442600   -1.73524900   -0.78181000
 C            0.47889500    0.43228600    0.09406700
 C            1.45463700   -0.48852400   -0.21881000
 S            1.21739500    1.94456200    0.59872200
 C            2.77948700    0.00941600   -0.05605800
 H            1.22448800   -1.49452600   -0.55006000
 C            2.81982000    1.30323900    0.38212600
 H            3.66951500   -0.57719900   -0.25572900
 H            3.68037700    1.92333700    0.58958900
  17
structure   35 of relaxed scan
 C           -3.13464800    0.83206300    0.25390300
 C           -3.09088200   -0.48016000   -0.17363000
 C           -1.72485300   -0.84281300   -0.29426200
 C           -0.95585800    0.25999800    0.06078200
 N           -1.84075800    1.26747800    0.39778000
 H           -1.57266200    2.20399900    0.65957600
 H           -3.96864300    1.48467100    0.46510000
 H           -3.94657500   -1.11020000   -0.37261500
 H           -1.33363900   -1.80541600   -0.59225900
 C            0.47903900    0.42113300    0.11963700
 C            1.45380900   -0.45208700   -0.31022400
 S            1.21835900    1.86723300    0.79016500
 C            2.77898400    0.03021000   -0.10665900
 H            1.22267400   -1.40692500   -0.76804000
 C            2.82005300    1.26840300    0.47013700
 H            3.66841200   -0.52385100   -0.38612100
 H            3.68083300    1.86718600    0.73216400
  17
structure   36 of relaxed scan
 C           -3.13177900    0.84540300    0.20934300
 C           -3.09291000   -0.49358100   -0.12443700
 C           -1.72758100   -0.87230100   -0.20803900
 C           -0.95559900    0.24845900    0.07334900
 N           -1.83590200    1.28202800    0.33604200
 H           -1.56029300    2.23903400    0.49744300
 H           -3.96329000    1.51638200    0.36591500
 H           -3.95124400   -1.13198700   -0.28114600
 H           -1.33878600   -1.85837900   -0.42016200
 C            0.47930600    0.40950800    0.13367300
 C            1.45325500   -0.41053700   -0.39080700
 S            1.21695000    1.78118600    0.94760500
 C            2.77816400    0.05570800   -0.14978200
 H            1.21944900   -1.30815300   -0.95157900
 C            2.81751000    1.23116800    0.54654700
 H            3.66795700   -0.46063300   -0.49305600
 H            3.67844100    1.80762000    0.85452200
  17
structure   37 of relaxed scan
 C           -3.12940700    0.85349000    0.16471700
 C           -3.09415400   -0.50453500   -0.08094800
 C           -1.72945000   -0.89425900   -0.12639700
 C           -0.95585600    0.23865400    0.08987400
 N           -1.83269200    1.29194000    0.27502000
 H           -1.54973900    2.25575900    0.36970900
 H           -3.95939500    1.53624800    0.27043300
 H           -3.95445500   -1.14814400   -0.20162600
 H           -1.34138100   -1.89353300   -0.26564300
 C            0.47952700    0.40463700    0.13961600
 C            1.45021000   -0.36465600   -0.46026700
 S            1.21976400    1.69695800    1.07332700
 C            2.77647300    0.08088100   -0.18680800
 H            1.21149300   -1.20698200   -1.09934400
 C            2.81754500    1.19071300    0.61018300
 H            3.66490000   -0.39873200   -0.58284400
 H            3.68026200    1.74248400    0.95643100
